     192

  O        12.2653784723        1.3579911114       10.8740408138
  O         6.4509184999        3.7068983139        8.6469007489
  O         0.0764687486        2.1676564936        8.2601487412
  O        12.0889014586        2.6364415193        2.1694325453
  O        12.2901845594        4.1725704303       12.0994369500
  O         7.2017860631        0.9427415232        4.7579350578
  O         8.3341412151        7.2071769548        4.6840399886
  O        12.3301285103       11.5198785457        8.0834933594
  O         3.2748050482        4.4593783159        9.1772633437
  O         2.8583347687        3.7889558961        6.5425615043
  O         1.3824714483        6.3935488029        0.5664274563
  O         1.8726738116        8.6871135963        2.0920293595
  O         3.7730767723       12.1058907360        8.6218752975
  O         6.4233128509        3.6640445878        2.7879942430
  O         1.9970733782        1.8516895642        4.8696731655
  O         8.2898896064        2.4206851632        6.9415908011
  O         5.7532970460        3.3335652191       12.4848259568
  O        11.3130798154        5.6564604705        2.2456065915
  O         4.2890207438        2.1128976248       10.5860195355
  O         5.3974786525        3.3596140282        5.4863631661
  O         6.5073921079       11.8694355022        0.7151133831
  O         3.2518787563        2.3399893121        2.4131601817
  O         8.0091259020        6.3550342320        7.4980859963
  O         5.9289268966        6.5064055837       12.1948889583
  O        10.6093962096       11.8622464767       12.2009547871
  O         9.3399300668        3.6879585799        3.5249275673
  O         1.1104118860        5.7900496143        6.6459278382
  O         8.0223626218        3.3261643987       10.8671600363
  O        12.3760247422        9.6748048075       11.7729447725
  O         4.2085952808        7.0917842864        8.1402782548
  O         3.7849842851        8.2247869704       11.5862609157
  O        11.0753084381        4.5441006254        7.8302989376
  O        10.4339404936        8.4226381283        1.0326606489
  O         1.9801939437        6.4006260573       10.3532960004
  O         4.7025541028        0.5645080436        5.6121216045
  O         8.7200355703       12.2406139583        8.0990354746
  O         2.6314728696       10.5195509666        0.0812367575
  O         7.2372170981       10.5128872249        4.2407693494
  O         2.2785106988        0.2735158759       10.8093081745
  O         8.8603338997        0.9475062310        1.3383490537
  O         1.9428454388        8.0933013675        7.5349610168
  O         9.6586885990        8.0354674891        9.8561801095
  O        10.9027016087        8.3314031190        6.4766468047
  O         3.5126605794        4.8681604571        1.5447193099
  O         7.9752195662        8.6025995319       12.0531935982
  O         8.3666863349       10.0168595418        6.6846564422
  O         5.6515454504        6.0831806402        5.5282838146
  O        11.7419281413        1.6243137536        5.0852528911
  O         9.7577982015        9.8129976466        3.5379380130
  O         3.9623475617       10.5501046888        4.6883966734
  O         0.9008735880        6.3698300196        4.0579309357
  O         6.8850257432        6.4069669347        2.5052035668
  O         3.8151074058        6.6390328148        3.7776794426
  O         6.5623475561        8.3060555774        8.8128281758
  O         9.7770427586        0.1367986200        3.8513708395
  O         4.1048067647       11.6455572918        2.2181305762
  O         5.3226714278        8.7360297304        2.7509914647
  O        10.0100106914        5.3721423736        5.3751121410
  O        12.2578402812        8.6481327937        3.9720814240
  O         2.3413100238       10.7498563115        6.8131612211
  O         7.0035770383        0.6611797552       10.5330160453
  O         5.1727234009       10.2177394652       10.3577222886
  O        11.1837022597        5.8856780735       10.2974137221
  O        12.2749231672        8.9553185979        9.0729730984
  H        12.3544834143        2.3096435033       11.1760351932
  H        11.9458162515        1.5267805409        9.9105980569
  H         5.6069287135        3.4535986547        9.0331480668
  H         6.8774231490        3.0384173458        8.0060675603
  H        -0.1386649787        1.5226970061        7.5393390838
  H        -0.3702603007        3.0262114100        7.9345037980
  H        12.1747920844        2.9655957291        1.2118760798
  H        12.9768489794        2.9103236365        2.5090267835
  H        11.5319515417        4.3120224477       11.4517865821
  H        12.7665929142        5.0396556318       12.0360849841
  H         6.9714703453        1.7193305687        4.1963585079
  H         6.2667561829        0.6941830852        5.1416273286
  H         7.7449837821        7.2224617803        5.4662739285
  H         9.1484133461        6.6491878868        4.9372349121
  H        12.8376123914       11.7750817392        8.8852295478
  H        11.9852135152       10.5846629304        8.3100981908
  H         3.5143596472        3.8628171269        9.9355194733
  H         2.4494103558        4.9111603105        9.5101739635
  H         2.1892552625        4.5354456757        6.3032448130
  H         2.8532686709        3.8531426515        7.5505489382
  H         1.1402127988        7.1741190997        1.1430939749
  H         2.2191319051        6.0211680210        0.9920923462
  H         2.7938846740        8.9689579393        2.2950559276
  H         1.3468500915        8.9922583807        2.8800584927
  H         4.4398996680       11.5606974094        9.1473742418
  H         3.0727708172       12.4629214645        9.2612912943
  H         5.8721989974        3.4620820089        3.6327423704
  H         5.8474722691        3.4047312757        2.0064470858
  H         0.9913740856        1.6508298057        4.8396639823
  H         2.2171490853        2.4587328102        5.6667858050
  H         8.4371749508        1.6297986972        7.5311537710
  H         8.0763892388        2.0257612585        6.0577956420
  H         5.2360689869        2.9118408682       11.7015197527
  H         6.6507647678        3.4144886539       11.9958822329
  H        10.7991616974        6.4945630803        2.1017392943
  H        11.6659569672        5.3697633164        1.3641965242
  H         3.4646958309        1.5650342123       10.8909380591
  H         4.8211643124        1.4442389627       10.1024917650
  H         4.4142205177        3.3626638640        5.6802896922
  H         5.6789899492        4.3365508109        5.5474292206
  H         6.3035844692       11.8276154858        1.6998950294
  H         5.6421462736       12.1134957913        0.3411215368
  H         3.5375980001        1.4132612995        2.1891354801
  H         2.6241365275        2.2060053732        3.2132924632
  H         7.1449622250        5.8844493586        7.5264739540
  H         8.6381073530        5.7440713919        7.0467993697
  H         6.0029216529        5.6717561197       11.6829661809
  H         6.2514339130        6.3286286837       13.1351851126
  H        11.0955155646       12.6202273865       11.7060713336
  H        10.2786488857       12.2835261105       13.0272009156
  H         9.8860073755        4.0432657500        2.7481490229
  H         8.5550022710        3.4682783676        2.9531230583
  H         1.4445811101        6.6399150071        7.0953464745
  H         1.0057925377        6.1660105424        5.6899871206
  H         7.9936086928        3.6884682654        9.9542120576
  H         8.0796959995        2.3423291051       10.7525016228
  H        11.7628533121       10.4326231217       12.0927105067
  H        12.1557236265        8.9513178168       12.3956482037
  H         3.3657871424        7.5983731085        7.8597709277
  H         3.8526478049        6.2612428223        8.6016406276
  H         3.1366425544        7.6391042055       11.0868788984
  H         4.4505713377        7.6487660835       12.0638382646
  H        11.5794883190        4.9706862515        7.0748708106
  H        10.3165955549        4.1409872174        7.3321494877
  H        10.0724726904        8.9326803696        1.8456469066
  H         9.5979227205        8.2640467756        0.5151528347
  H         1.3331063206        6.6845822590        9.6675449967
  H         1.4163583831        6.4504370217       11.1969811689
  H         4.1410778925        1.3126371573        5.2748625309
  H         4.6865451449        0.6452838272        6.5948881938
  H         9.4591316801       12.3320616069        8.7311992641
  H         8.8525427313       11.3793105094        7.5605567418
  H         1.7600563766       10.0360314577        0.1437672100
  H         3.3207872566        9.8673245642       -0.2242585423
  H         7.0502734804       11.4792998544        4.1234469567
  H         6.4914894880        9.9515150702        3.8026481305
  H         1.3582957395        0.5711270847       11.1288260978
  H         2.5160042652       -0.5187336552       11.4415291455
  H         8.7720961492        1.8569506515        0.9950434098
  H         8.1145400226        0.3577848233        0.9962810952
  H         1.1493030773        8.3601784117        8.1546861959
  H         2.0825088058        8.9651042157        7.0244540835
  H         8.9258176857        7.7999755185        9.2341145657
  H         9.0828941143        8.4400830099       10.5902972469
  H        10.1419661022        7.7110672445        6.4564628507
  H        10.5115519465        9.1830585779        6.1628560182
  H         3.4989777389        3.9839242517        2.0998598496
  H         4.0431355735        4.5925639574        0.7589237278
  H         7.3650794684        9.3754576635       12.0348940422
  H         7.3552684240        7.7980327455       12.0535077076
  H         7.8371817880       10.1564746893        5.8086472191
  H         7.7288915542        9.5229176856        7.2678642936
  H         5.2999002697        6.4825089374        6.3699322788
  H         4.8915129145        6.3092372043        4.8574585929
  H        11.5248865409        2.1803260224        4.2654701493
  H        11.2438102029        0.8027415240        4.7969758662
  H         8.8354611627        9.6771107172        3.9591064050
  H         9.9327357845       10.7802148407        3.7773375883
  H         3.1267442003       10.5435669475        5.2645069929
  H         4.3028218657       11.4277579725        5.0513935282
  H         0.4381602471        7.2678778127        3.8071037512
  H         0.3209110206        5.7854293901        3.4754834445
  H         7.5662525916        6.5596481246        3.2618595873
  H         6.6845113337        5.4142224113        2.5181264343
  H         3.8515968138        6.3203858474        2.8396990290
  H         2.8268385827        6.5488857341        3.9504375221
  H         5.5853374932        8.0246674305        8.6631279279
  H         6.9871691024        7.4946819346        8.4220888751
  H         9.5663080484        0.7209123672        3.0488880464
  H         8.9504270082        0.1320145383        4.3959839446
  H         3.8612664418       11.1887914406        1.3659290086
  H         3.9627362788       10.9834596106        2.9773368596
  H         5.9279307139        7.9206694462        2.8017862627
  H         4.7808210604        8.7246351474        3.5707426303
  H        10.8866988962        5.5256567387        4.9391579674
  H         9.5176535166        4.6990230516        4.7435070953
  H        11.5189056932        8.9934862938        3.4129537396
  H        11.9710864312        8.7894412015        4.9177789094
  H         2.9178674161       11.3160300298        7.4625492958
  H         1.4241973905       11.1115039657        6.7997037322
  H         7.2108590883        0.1374157907        9.7241397114
  H         7.1653760614        0.1174442105       11.3449376078
  H         4.8273104326        9.3480748209       10.8250953606
  H         6.0635272223        9.8243983732       10.1952812829
  H        10.5838329307        6.7052354376       10.3178927461
  H        11.2376964555        5.6040605672        9.3357903104
  H        12.1892115946        8.9902053958       10.1002136816
  H        11.4366040185        8.6438361286        8.6499776246
